referencia_aspirina
     RDKit          3D

 21 21  0  0  0  0  0  0  0  0999 V2000
   -3.4148   -0.4819   -0.0406 C   0  0  1  0  0  0  0  0  0  0  0  0
   -1.9775   -0.5082   -0.4669 C   0  0  0  0  0  0  0  0  0  0  0  0
   -1.6002   -0.4855   -1.6316 O   0  0  0  0  0  0  0  0  0  0  0  0
   -1.1739   -0.5871    0.6651 O   0  0  0  0  0  0  0  0  0  0  0  0
    0.1892   -0.5245    0.3616 C   0  0  0  0  0  0  0  0  0  0  0  0
    0.8821   -1.7390    0.3244 C   0  0  0  0  0  0  0  0  0  0  0  0
    2.2494   -1.7449    0.0556 C   0  0  0  0  0  0  0  0  0  0  0  0
    2.9215   -0.5426   -0.1623 C   0  0  0  0  0  0  0  0  0  0  0  0
    2.2291    0.6715   -0.1057 C   0  0  0  0  0  0  0  0  0  0  0  0
    0.8519    0.6957    0.1649 C   0  0  0  0  0  0  0  0  0  0  0  0
    0.1155    1.9840    0.2554 C   0  0  0  0  0  0  0  0  0  0  0  0
   -1.0520    2.1431    0.5605 O   0  0  0  0  0  0  0  0  0  0  0  0
    0.8915    3.0442   -0.0420 O   0  0  0  0  0  0  0  0  0  0  0  0
   -3.6719   -1.4229    0.4516 H   0  0  0  0  0  0  0  0  0  0  0  0
   -3.5884    0.3640    0.6294 H   0  0  0  0  0  0  0  0  0  0  0  0
   -4.0511   -0.3602   -0.9219 H   0  0  0  0  0  0  0  0  0  0  0  0
    0.3578   -2.6750    0.4952 H   0  0  0  0  0  0  0  0  0  0  0  0
    2.7915   -2.6866    0.0140 H   0  0  0  0  0  0  0  0  0  0  0  0
    3.9882   -0.5477   -0.3749 H   0  0  0  0  0  0  0  0  0  0  0  0
    2.7786    1.5954   -0.2719 H   0  0  0  0  0  0  0  0  0  0  0  0
    0.2832    3.8083    0.0400 H   0  0  0  0  0  0  0  0  0  0  0  0
  1  2  1  0
  2  3  2  0
  2  4  1  0
  4  5  1  0
  5  6  2  0
  6  7  1  0
  7  8  2  0
  8  9  1  0
  9 10  2  0
 10 11  1  0
 11 12  2  0
 11 13  1  0
 10  5  1  0
  1 14  1  1
  1 15  1  0
  1 16  1  0
  6 17  1  0
  7 18  1  0
  8 19  1  0
  9 20  1  0
 13 21  1  0
M  END
$$$$
