referencia_conf2
     RDKit          3D

 40 41  0  0  0  0  0  0  0  0999 V2000
    3.7324   -1.5715    1.9244 C   0  0  0  0  0  0  0  0  0  0  0  0
    4.0187   -0.5822    0.8896 N   0  0  0  0  0  0  0  0  0  0  0  0
    4.4511    0.6828    1.4750 C   0  0  0  0  0  0  0  0  0  0  0  0
    2.9031   -0.4166   -0.0564 C   0  0  0  0  0  0  0  0  0  0  0  0
    1.5728    0.1237    0.4949 C   0  0  0  0  0  0  0  0  0  0  0  0
    0.6324    0.1972   -0.5810 O   0  0  0  0  0  0  0  0  0  0  0  0
   -0.6704    0.6292   -0.1533 C   0  0  0  0  0  0  0  0  0  0  0  0
   -1.4561   -0.5502    0.4008 C   0  0  0  0  0  0  0  0  0  0  0  0
   -1.5004   -1.7763   -0.2825 C   0  0  0  0  0  0  0  0  0  0  0  0
   -2.2265   -2.8519    0.2306 C   0  0  0  0  0  0  0  0  0  0  0  0
   -2.9200   -2.7155    1.4312 C   0  0  0  0  0  0  0  0  0  0  0  0
   -2.8896   -1.5039    2.1191 C   0  0  0  0  0  0  0  0  0  0  0  0
   -2.1636   -0.4265    1.6076 C   0  0  0  0  0  0  0  0  0  0  0  0
   -1.3928    1.3130   -1.3086 C   0  0  0  0  0  0  0  0  0  0  0  0
   -2.4372    2.2157   -1.0424 C   0  0  0  0  0  0  0  0  0  0  0  0
   -3.1227    2.8438   -2.0844 C   0  0  0  0  0  0  0  0  0  0  0  0
   -2.7778    2.5768   -3.4072 C   0  0  0  0  0  0  0  0  0  0  0  0
   -1.7498    1.6804   -3.6896 C   0  0  0  0  0  0  0  0  0  0  0  0
   -1.0640    1.0511   -2.6486 C   0  0  0  0  0  0  0  0  0  0  0  0
    4.6331   -1.7752    2.5145 H   0  0  0  0  0  0  0  0  0  0  0  0
    2.9451   -1.2460    2.6128 H   0  0  0  0  0  0  0  0  0  0  0  0
    3.4301   -2.5249    1.4773 H   0  0  0  0  0  0  0  0  0  0  0  0
    3.6980    1.1186    2.1403 H   0  0  0  0  0  0  0  0  0  0  0  0
    5.3702    0.5391    2.0542 H   0  0  0  0  0  0  0  0  0  0  0  0
    4.6863    1.4124    0.6923 H   0  0  0  0  0  0  0  0  0  0  0  0
    2.7108   -1.3797   -0.5485 H   0  0  0  0  0  0  0  0  0  0  0  0
    3.2302    0.2354   -0.8778 H   0  0  0  0  0  0  0  0  0  0  0  0
    1.7108    1.1270    0.9117 H   0  0  0  0  0  0  0  0  0  0  0  0
    1.1860   -0.5398    1.2748 H   0  0  0  0  0  0  0  0  0  0  0  0
   -0.5320    1.3884    0.6293 H   0  0  0  0  0  0  0  0  0  0  0  0
   -0.9636   -1.8939   -1.2219 H   0  0  0  0  0  0  0  0  0  0  0  0
   -2.2520   -3.7947   -0.3094 H   0  0  0  0  0  0  0  0  0  0  0  0
   -3.4872   -3.5530    1.8285 H   0  0  0  0  0  0  0  0  0  0  0  0
   -3.4347   -1.3977    3.0534 H   0  0  0  0  0  0  0  0  0  0  0  0
   -2.1556    0.5116    2.1574 H   0  0  0  0  0  0  0  0  0  0  0  0
   -2.7274    2.4316   -0.0167 H   0  0  0  0  0  0  0  0  0  0  0  0
   -3.9287    3.5385   -1.8634 H   0  0  0  0  0  0  0  0  0  0  0  0
   -3.3119    3.0642   -4.2183 H   0  0  0  0  0  0  0  0  0  0  0  0
   -1.4808    1.4677   -4.7208 H   0  0  0  0  0  0  0  0  0  0  0  0
   -0.2661    0.3514   -2.8890 H   0  0  0  0  0  0  0  0  0  0  0  0
  1  2  1  0
  2  3  1  0
  2  4  1  0
  4  5  1  0
  5  6  1  0
  6  7  1  0
  7  8  1  0
  8  9  2  0
  9 10  1  0
 10 11  2  0
 11 12  1  0
 12 13  2  0
  7 14  1  0
 14 15  2  0
 15 16  1  0
 16 17  2  0
 17 18  1  0
 18 19  2  0
 13  8  1  0
 19 14  1  0
  1 20  1  0
  1 21  1  0
  1 22  1  0
  3 23  1  0
  3 24  1  0
  3 25  1  0
  4 26  1  0
  4 27  1  0
  5 28  1  0
  5 29  1  0
  7 30  1  0
  9 31  1  0
 10 32  1  0
 11 33  1  0
 12 34  1  0
 13 35  1  0
 15 36  1  0
 16 37  1  0
 17 38  1  0
 18 39  1  0
 19 40  1  0
M  END
$$$$
