referencia_conf1
     RDKit          3D

 40 41  0  0  0  0  0  0  0  0999 V2000
    4.3381    0.8809   -0.0753 C   0  0  0  0  0  0  0  0  0  0  0  0
    3.9582   -0.1914    0.8474 N   0  0  0  0  0  0  0  0  0  0  0  0
    4.7952   -0.1255    2.0490 C   0  0  0  0  0  0  0  0  0  0  0  0
    2.5345   -0.1059    1.2267 C   0  0  0  0  0  0  0  0  0  0  0  0
    1.5602   -0.4285    0.0840 C   0  0  0  0  0  0  0  0  0  0  0  0
    0.2267   -0.4057    0.6041 O   0  0  0  0  0  0  0  0  0  0  0  0
   -0.7644   -0.6663   -0.4041 C   0  0  0  0  0  0  0  0  0  0  0  0
   -2.0022   -1.2904    0.2317 C   0  0  0  0  0  0  0  0  0  0  0  0
   -2.2866   -1.1503    1.5998 C   0  0  0  0  0  0  0  0  0  0  0  0
   -3.4337   -1.7221    2.1543 C   0  0  0  0  0  0  0  0  0  0  0  0
   -4.3161   -2.4385    1.3491 C   0  0  0  0  0  0  0  0  0  0  0  0
   -4.0540   -2.5828   -0.0112 C   0  0  0  0  0  0  0  0  0  0  0  0
   -2.9068   -2.0121   -0.5668 C   0  0  0  0  0  0  0  0  0  0  0  0
   -1.0870    0.6173   -1.1554 C   0  0  0  0  0  0  0  0  0  0  0  0
   -1.1083    0.6310   -2.5593 C   0  0  0  0  0  0  0  0  0  0  0  0
   -1.4069    1.8049   -3.2537 C   0  0  0  0  0  0  0  0  0  0  0  0
   -1.6895    2.9772   -2.5553 C   0  0  0  0  0  0  0  0  0  0  0  0
   -1.6749    2.9782   -1.1621 C   0  0  0  0  0  0  0  0  0  0  0  0
   -1.3765    1.8061   -0.4661 C   0  0  0  0  0  0  0  0  0  0  0  0
    3.8071    0.7904   -1.0279 H   0  0  0  0  0  0  0  0  0  0  0  0
    4.1404    1.8752    0.3413 H   0  0  0  0  0  0  0  0  0  0  0  0
    5.4051    0.8179   -0.3182 H   0  0  0  0  0  0  0  0  0  0  0  0
    5.8544   -0.2266    1.7867 H   0  0  0  0  0  0  0  0  0  0  0  0
    4.5630   -0.9546    2.7268 H   0  0  0  0  0  0  0  0  0  0  0  0
    4.6624    0.8157    2.5949 H   0  0  0  0  0  0  0  0  0  0  0  0
    2.2935    0.8800    1.6472 H   0  0  0  0  0  0  0  0  0  0  0  0
    2.3293   -0.8256    2.0312 H   0  0  0  0  0  0  0  0  0  0  0  0
    1.6485    0.3094   -0.7193 H   0  0  0  0  0  0  0  0  0  0  0  0
    1.7751   -1.4256   -0.3178 H   0  0  0  0  0  0  0  0  0  0  0  0
   -0.3541   -1.4150   -1.0962 H   0  0  0  0  0  0  0  0  0  0  0  0
   -1.6108   -0.5921    2.2445 H   0  0  0  0  0  0  0  0  0  0  0  0
   -3.6372   -1.6058    3.2154 H   0  0  0  0  0  0  0  0  0  0  0  0
   -5.2091   -2.8815    1.7815 H   0  0  0  0  0  0  0  0  0  0  0  0
   -4.7444   -3.1370   -0.6414 H   0  0  0  0  0  0  0  0  0  0  0  0
   -2.7240   -2.1297   -1.6325 H   0  0  0  0  0  0  0  0  0  0  0  0
   -0.8927   -0.2741   -3.1224 H   0  0  0  0  0  0  0  0  0  0  0  0
   -1.4213    1.8047   -4.3405 H   0  0  0  0  0  0  0  0  0  0  0  0
   -1.9241    3.8899   -3.0965 H   0  0  0  0  0  0  0  0  0  0  0  0
   -1.8984    3.8906   -0.6156 H   0  0  0  0  0  0  0  0  0  0  0  0
   -1.3688    1.8177    0.6220 H   0  0  0  0  0  0  0  0  0  0  0  0
  1  2  1  0
  2  3  1  0
  2  4  1  0
  4  5  1  0
  5  6  1  0
  6  7  1  0
  7  8  1  0
  8  9  2  0
  9 10  1  0
 10 11  2  0
 11 12  1  0
 12 13  2  0
  7 14  1  0
 14 15  2  0
 15 16  1  0
 16 17  2  0
 17 18  1  0
 18 19  2  0
 13  8  1  0
 19 14  1  0
  1 20  1  0
  1 21  1  0
  1 22  1  0
  3 23  1  0
  3 24  1  0
  3 25  1  0
  4 26  1  0
  4 27  1  0
  5 28  1  0
  5 29  1  0
  7 30  1  0
  9 31  1  0
 10 32  1  0
 11 33  1  0
 12 34  1  0
 13 35  1  0
 15 36  1  0
 16 37  1  0
 17 38  1  0
 18 39  1  0
 19 40  1  0
M  END
$$$$
