@<TRIPOS>MOLECULE
DB00173
15 16 1
SMALL
USER_CHARGES
@<TRIPOS>ATOM
1	N1    -1.5829     0.5721     1.0478	N.3	1	noname	-0.0206
2	N2    -3.0388     1.7879    -0.2655	N.2	1	noname	-0.1923
3	N3    -1.6274     1.9453    -2.2619	N.2	1	noname	-0.2205
4	N4     0.5183     0.9016    -2.0445	N.2	1	noname	-0.2407
5	N5     1.1563    -0.2189    -0.0622	N.3	1	noname	-0.1102
6	C1    -1.0044     0.8322    -0.2409	C.2	1	noname	0.0371
7	C2    -1.8867     1.5316    -0.9807	C.2	1	noname	0.0912
8	C3     0.1890     0.5181    -0.7620	C.2	1	noname	0.0431
9	C4    -2.8671     1.2384     0.9910	C.2	1	noname	-0.0303
10	C5    -0.3961     1.6205    -2.7874	C.2	1	noname	0.0301
11	H1    -1.1823     0.0463     1.8115	H	1	noname	0.1539
12	H2     0.9744    -1.1799     0.1897	H	1	noname	0.1258
13	H3     2.0346     0.2116     0.1897	H	1	noname	0.1258
14	H4    -3.6065     1.3160     1.7881	H	1	noname	0.1014
15	H5    -0.1432     1.9350    -3.7999	H	1	noname	0.1062
@<TRIPOS>BOND
1	1	6	1
2	1	9	1
3	2	7	1
4	2	9	2
5	3	7	2
6	3	10	1
7	4	8	1
8	4	10	2
9	5	8	1
10	6	7	1
11	6	8	2
12	1	11	1
13	5	12	1
14	5	13	1
15	9	14	1
16	10	15	1
@<TRIPOS>SUBSTRUCTURE
1	noname	1
